omega_1
  -OEChem-05011615063D

 12 11  0     0  0  0  0  0  0999 V2000
   -0.0035   -0.6640    0.8700 C   0  0  0  0  0  0  0  0  0  0  0  0
    1.2444   -0.4434    1.7060 C   0  0  0  0  0  0  0  0  0  0  0  0
    1.2749   -1.3494    2.9273 C   0  0  0  0  0  0  0  0  0  0  0  0
    2.4570   -1.0814    3.6686 O   0  0  0  0  0  0  0  0  0  0  0  0
   -0.0766   -1.7059    0.5423 H   0  0  0  0  0  0  0  0  0  0  0  0
   -0.8985   -0.4284    1.4543 H   0  0  0  0  0  0  0  0  0  0  0  0
    0.0009   -0.0237   -0.0177 H   0  0  0  0  0  0  0  0  0  0  0  0
    1.2990    0.6047    2.0239 H   0  0  0  0  0  0  0  0  0  0  0  0
    2.1379   -0.6194    1.0950 H   0  0  0  0  0  0  0  0  0  0  0  0
    0.4098   -1.1652    3.5724 H   0  0  0  0  0  0  0  0  0  0  0  0
    1.2804   -2.4035    2.6318 H   0  0  0  0  0  0  0  0  0  0  0  0
    2.4459   -1.6736    4.4381 H   0  0  0  0  0  0  0  0  0  0  0  0
  1  2  1  0  0  0  0
  2  3  1  0  0  0  0
  3  4  1  0  0  0  0
  1  5  1  0  0  0  0
  1  6  1  0  0  0  0
  1  7  1  0  0  0  0
  2  8  1  0  0  0  0
  2  9  1  0  0  0  0
  3 10  1  0  0  0  0
  3 11  1  0  0  0  0
  4 12  1  0  0  0  0
M  END
$$$$
